*SOILS: General DSSAT Soil Input File

*IB00000001  IBSNAT      -99     210 DEFAULT - DEEP SILTY CLAY
@SITE        COUNTRY          LAT     LONG SCS FAMILY
 Generic     Generic          -99      -99 -99
@ SCOM  SALB  SLU1  SLDR  SLRO  SLNF  SLPF  SMHB  SMPX  SMKE
   -99  0.11  6.00  0.30  85.0  1.00  1.00 IB001   -99   -99
@  SLB  SLMH  SLLL  SDUL  SSAT  SRGF  SSKS  SBDM  SLOC  SLCL  SLSI  SLCF  SLNI  SLHW  SLHB  SCEC  SADC
     5   -99 0.228 0.385 0.481 1.000   -99  1.30 1.750  50.0  45.0   0.0  0.17  6.50   -99   -99   -99
    15   -99 0.228 0.385 0.481 1.000   -99  1.30 1.750  50.0  45.0   0.0  0.17  6.50   -99   -99   -99
    30   -99 0.249 0.406 0.482 0.638   -99  1.30 1.600  50.0  45.0   0.0  0.17  6.50   -99   -99   -99
    45   -99 0.249 0.406 0.465 0.472   -99  1.35 1.450  50.0  45.0   0.0  0.14  6.50   -99   -99   -99
    60   -99 0.249 0.406 0.465 0.350   -99  1.35 1.450  50.0  45.0   0.0  0.14  6.50   -99   -99   -99
    90   -99 0.308 0.456 0.468 0.223   -99  1.35 1.100  50.0  45.0   0.0  0.11  6.50   -99   -99   -99
   120   -99 0.207 0.341 0.452 0.122   -99  1.40 0.650  50.0  45.0   0.0  0.06  6.50   -99   -99   -99
   150   -99 0.243 0.365 0.455 0.067   -99  1.40 0.300  50.0  45.0   0.0  0.03  6.50   -99   -99   -99
   180   -99 0.259 0.361 0.457 0.037   -99  1.40 0.100  50.0  45.0   0.0  0.01  6.50   -99   -99   -99
   210   -99 0.259 0.361 0.457 0.020   -99  1.40 0.010  50.0  45.0   0.0  0.00  6.50   -99   -99   -99
