*EXP.DETAILS: SEDE9501WH en, Duengungs-Kombinationsversuch Seehausen (F1-70)         

*FILES
@N  EXP.DATA    AFILE        ADIR
  1 EXP         SEDE9501.WHA                                                                                 
@N  SPECIES     SPFILE       SPDIR
  1 SPE         WHAPS048.SPE C:\DSSAT48\GENOTYPE\                                                            
@N  ECOTYPE     EFILE        EDIR
  1 ECO         WHAPS048.ECO C:\DSSAT48\GENOTYPE\                                                            
@N  CULTIVAR    CFILE        CDIR
  1 CUL         WHAPS048.CUL C:\DSSAT48\GENOTYPE\                                                            
@N  SOIL        SFILE        SDIR
  1 SOIL        SOIL.SOL     C:\DSSAT48\SOIL\                                                                
@N  WEATHER     WFILE        WDIR
  1 WEATH       SEDE9401.WTH C:\DSSAT48\Weather\                                                             

*SIMULATION CONTROL
@N  GENERAL     NYERS NREPS START   SDATE RSEED SNAME.................... MODEL...
  1 GE              1     1     S 1994297  2150 -99                       WHAPS048
@N  OPTIONS     WATER NITRO SYMBI PHOSP POTAS DISES  CHEM  TILL   CO2
  1 OP              Y     Y     N     N     N     N     Y     Y     M
@N  METHODS     WTHER INCON LIGHT EVAPO INFIL PHOTO HYDRO NSWIT SOMDY MESEV MESOL METMP MEGHG
  1 ME              M     M     E     R     S     C     R     1     G     R     2     D     0
@N  MANAGEMENT  PLANT IRRIG FERTI RESID HARVS
  1 MA              R     N     R     N     R
@N  OUTPUTS     FNAME OVVEW SUMRY FROPT GROUT CAOUT WAOUT NIOUT MIOUT DIOUT  LONG CHOUT OPOUT
  1 OU              N     Y     Y     1     Y     N     N     N     N     N     Y     N     N

!AUTOMATIC MANAGEM
@N  PLANTING      PFRST   PLAST PH2OL PH2OU PH2OD PSTMX PSTMN
  1 PL              -99     -99  -99.  -99.  -99.  -99.  -99.
@N  IRRIGATION  IMDEP ITHRL ITHRU IROFF IMETH IRAMT IREFF
  1 IR           -99.  -99.  -99.   -99   -99 -99.0 *****
@N  NITROGEN    NMDEP NMTHR NAMNT NCODE NAOFF
  1 NI           -99.  -99.  -99.   -99   -99
@N  RESIDUES    RIPCN RTIME RIDEP
  1 RE           -99.   -99  -99.
@N  HARVEST     HFRST   HLAST HPCNP HRCNR
  1 HA            -99     -99  100.    0.

*TREATMENTS
@N   R O C TNAME....................  CU  FL  SA  IC  MP  MI  MF  MR  MC  MT  ME  MH  SM
  4  1 0 0 1 | 4                       1   1   0   1   1   0   3   0   1   1   0   1   1

*CULTIVARS
@C  CR INGENO CNAME
  1 WH IB9999 Borenos         

*FIELDS
@L  ID_FIELD WSTA....  FLSA  FLOB  FLDT  FLDD  FLDS  FLST SLTX   SLDP ID_SOIL
  1 -99      SEDE9401   0.0  -99.   -99  -99.  100.   -99 SIC    -99. IB00000001
@L             XCRD            YCRD      ELEV              AREA  SLEN  FLWR  SLAS PRMGT
  1        12.41893        51.40188    130.00               1.0  100.   1.0 -99.0   -99   -99

*INITIAL CONDITIONS
@C  PCR     ICDAT  ICRT  ICND  ICRN  ICRE  ICWD ICRES ICREN ICREP ICRIP ICRID
  1 PT        -99     0     0  1.00  1.00   0.0     0  0.00  0.00  100.    0.
@C   ICBL  SH2O  SNH4  SNO3
  1    5. 0.385   0.0   0.0
  1   15. 0.385   0.0   0.0
  1   30. 0.406   0.0   0.0
  1   45. 0.406   0.0   0.0
  1   60. 0.406   0.0   0.0
  1   90. 0.456   0.0   0.0
  1  120. 0.341   0.0   0.0
  1  150. 0.365   0.0   0.0
  1  180. 0.361   0.0   0.0
  1  210. 0.361   0.0   0.0

*PLANTING DETAILS
@P    PDATE   EDATE  PPOP  PPOE  PLME  PLDS  PLRS  PLRD  PLDP  PLWT  PAGE  PENV  PLPH  SPRL
  1 1994299 1994322 500.0 500.0     S     R   12.  -99.   5.5  230.  -99. -99.0 -99.0 -99.0

*IRRIGATION
@I   IEFF  IDEP  ITHR  IEPT  IOFF  IAME  IAMT
  0 1.000    0.    0.    0. GS000 IR001   0.0
@I    IDATE  IROP IRVAL

*FERTILIZERS
@F    FDATE  FMCD  FACD  FDEP  FAMN  FAMP  FAMK  FAMC  FAMO  FOCD
  3 1995066 FE041 AP001   10.   80.    0.    0.    0.  -99.   -99
  3 1995129 FE041 AP001   10.   40.    0.    0.    0.  -99.   -99

*RESIDUES
@R    RDATE  RCOD  RAMT  RESN  RESP  RESK  RINP  RDEP  RMET

*CHEMICALS
@C    CDATE CHCOD CHAMT  CHME CHDEP   CHT
  1 1995096   -99  2.00 AP006 -99.0 -99    -99                                     
  1 1995123   -99  0.00 AP006 -99.0 -99    -99                                     
  1 1995123   -99  2.00 AP006 -99.0 -99    -99                                     
  1 1995135   -99  1.00 AP006 -99.0 -99    -99                                     
  1 1995096   -99  1.00 AP006 -99.0 -99    -99                                     
  1 1995123 CH006  1.00 AP006 -99.0 -99    -99                                     

*TILLAGE
@T    TDATE TIMPL  TDEP
  1 1994297 TI041  25.0
  1 1994298 TI038   2.0

*ENVIRONMENT
@E    ODATE  EDAY  ERAD  EMAX  EMIN ERAIN  ECO2  EDEW EWIND

*HARVEST
@H    HDATE  HSTG  HCOM HSIZE   HPC  HBPC
  1 1995216   -99   -99   -99  100.    0.
