*MODEL INPUT FILE            B     4     1     4   999     0
*FILES              
MODEL          WHAPS048
FILEX          SEDE9501.WHX                                                                                 
FILEA          SEDE9501.WHA                                                                                 
FILET          SEDE9501.WHT                                                                                 
SPECIES        WHAPS048.SPE C:\DSSAT48\GENOTYPE\                                                            
ECOTYPE        WHAPS048.ECO C:\DSSAT48\GENOTYPE\                                                            
CULTIVAR       WHAPS048.CUL C:\DSSAT48\GENOTYPE\                                                            
PESTS          WHAPS048.PST C:\DSSAT48\PEST\                                                                
SOILS          SOIL.SOL     C:\DSSAT48\SOIL\                                                                
WEATHERW       SEDE9401.WTH C:\DSSAT48\Weather\                                                             
OUTPUT         OVERVIEW
*SIMULATION CONTROL 
                   1     1     S 1994297  2150 -99                      
                   Y     Y     N     N     N     N     Y     Y     M
                   M     M     E     R     S     C     R     1     G     R     2     D     0
                   R     N     R     N     R
                   N     Y     Y     1     Y     N     N     N     N     N     Y     N     N
!AUTOMATIC MANAGEM  
                   -99     -99  -99.  -99.  -99.  -99.  -99.
                -99.  -99.  -99.   -99   -99 -99.0 *****
                -99.  -99.  -99.   -99   -99
                -99.   -99  -99.
                   -99     -99  100.    0.
*EXP.DETAILS        
  1SEDE9501 WH en, Duengungs-Kombinationsversuch Seehausen (F1-70)         
*TREATMENTS         
  4 1 0 0 1 | 4                    
*CULTIVARS          
   WH IB9999 Borenos         
*FIELDS             
   -99      SEDE9401   0.0  -99.   -99  -99. 100.0   -99 SIC    -99. IB00000001
     12.4189300537   51.4018783569   130.000               1.0  100.   1.0 -99.0   -99   -99
*INITIAL CONDITIONS 
   PT        -99     0     0  1.00  1.00   0.0     0  0.00  0.00  100.    0.
      5. 0.385 0.010 0.010
     15. 0.385 0.010 0.010
     30. 0.406 0.010 0.010
     45. 0.406 0.010 0.010
     60. 0.406 0.010 0.010
     90. 0.456 0.010 0.010
    120. 0.341 0.010 0.010
    150. 0.365 0.010 0.010
    180. 0.361 0.010 0.010
    210. 0.361 0.010 0.010
*PLANTING DETAILS   
   1994299 1994322 500.0 500.0     S     R   12.  -99.   5.5  230.  -99. -99.0 -99.0 -99.0
*IRRIGATION         
   1.000    0.    0.    0. GS000 IR001   0.0
*FERTILIZERS        
   1995066 FE041 AP001   10.   80.    0.    0.    0.  -99.   -99
   1995129 FE041 AP001   10.   40.    0.    0.    0.  -99.   -99
*RESIDUES           
*CHEMICALS          
   1995096   -99  2.00 AP006 -99.0 -99    -99                                     
   1995123   -99  0.00 AP006 -99.0 -99    -99                                     
   1995123   -99  2.00 AP006 -99.0 -99    -99                                     
   1995135   -99  1.00 AP006 -99.0 -99    -99                                     
   1995096   -99  1.00 AP006 -99.0 -99    -99                                     
   1995123 CH006  1.00 AP006 -99.0 -99    -99                                     
*TILLAGE            
   1994297 TI041  25.0
   1994298 TI038   2.0
*ENVIRONMENT        
*HARVEST            
   1995216   -99   -99   -99  100.    0.
*SOIL               
 IB00000001  IBSNAT      SIC    -99. DEFAULT - DEEP SILTY CLAY                         
 Generic     Generic      -0.099  -0.099 Generic                                           
 -99    0.11   6.0  0.30   85.  1.00  1.00 IB001 IB001 IB001 -99  
    5.       0.228 0.385 0.481 1.000  -99.  1.30 1.750  50.0  45.0   0.0 0.170  6.50-99.00-99.00-99.00
   15.       0.228 0.385 0.481 1.000  -99.  1.30 1.750  50.0  45.0   0.0 0.170  6.50-99.00-99.00-99.00
   30.       0.249 0.406 0.482 0.638  -99.  1.30 1.600  50.0  45.0   0.0 0.170  6.50-99.00-99.00-99.00
   45.       0.249 0.406 0.465 0.472  -99.  1.35 1.450  50.0  45.0   0.0 0.140  6.50-99.00-99.00-99.00
   60.       0.249 0.406 0.465 0.350  -99.  1.35 1.450  50.0  45.0   0.0 0.140  6.50-99.00-99.00-99.00
   90.       0.308 0.456 0.468 0.223  -99.  1.35 1.100  50.0  45.0   0.0 0.110  6.50-99.00-99.00-99.00
  120.       0.207 0.341 0.452 0.122  -99.  1.40 0.650  50.0  45.0   0.0 0.060  6.50-99.00-99.00-99.00
  150.       0.243 0.365 0.455 0.067  -99.  1.40 0.300  50.0  45.0   0.0 0.030  6.50-99.00-99.00-99.00
  180.       0.259 0.361 0.457 0.037  -99.  1.40 0.100  50.0  45.0   0.0 0.010  6.50-99.00-99.00-99.00
  210.       0.259 0.361 0.457 0.020  -99.  1.40 0.010  50.0  45.0   0.0   0.0  6.50-99.00-99.00-99.00
                    
    5.-99.00 -99.0 -99.0 -99.0 -99.0 -99.0 -99.0 -99.0 -99.0 -99.0-99.00 -99.0 -99.0 -99.0 -99.0 -99.0  -99.
   15.-99.00 -99.0 -99.0 -99.0 -99.0 -99.0 -99.0 -99.0 -99.0 -99.0-99.00 -99.0 -99.0 -99.0 -99.0 -99.0  -99.
   30.-99.00 -99.0 -99.0 -99.0 -99.0 -99.0 -99.0 -99.0 -99.0 -99.0-99.00 -99.0 -99.0 -99.0 -99.0 -99.0  -99.
   45.-99.00 -99.0 -99.0 -99.0 -99.0 -99.0 -99.0 -99.0 -99.0 -99.0-99.00 -99.0 -99.0 -99.0 -99.0 -99.0  -99.
   60.-99.00 -99.0 -99.0 -99.0 -99.0 -99.0 -99.0 -99.0 -99.0 -99.0-99.00 -99.0 -99.0 -99.0 -99.0 -99.0  -99.
   90.-99.00 -99.0 -99.0 -99.0 -99.0 -99.0 -99.0 -99.0 -99.0 -99.0-99.00 -99.0 -99.0 -99.0 -99.0 -99.0  -99.
  120.-99.00 -99.0 -99.0 -99.0 -99.0 -99.0 -99.0 -99.0 -99.0 -99.0-99.00 -99.0 -99.0 -99.0 -99.0 -99.0  -99.
  150.-99.00 -99.0 -99.0 -99.0 -99.0 -99.0 -99.0 -99.0 -99.0 -99.0-99.00 -99.0 -99.0 -99.0 -99.0 -99.0  -99.
  180.-99.00 -99.0 -99.0 -99.0 -99.0 -99.0 -99.0 -99.0 -99.0 -99.0-99.00 -99.0 -99.0 -99.0 -99.0 -99.0  -99.
  210.-99.00 -99.0 -99.0 -99.0 -99.0 -99.0 -99.0 -99.0 -99.0 -99.0-99.00 -99.0 -99.0 -99.0 -99.0 -99.0  -99.
                    
    5.-99.00-99.00-99.00-99.00
   15.-99.00-99.00-99.00-99.00
   30.-99.00-99.00-99.00-99.00
   45.-99.00-99.00-99.00-99.00
   60.-99.00-99.00-99.00-99.00
   90.-99.00-99.00-99.00-99.00
  120.-99.00-99.00-99.00-99.00
  150.-99.00-99.00-99.00-99.00
  180.-99.00-99.00-99.00-99.00
  210.-99.00-99.00-99.00-99.00
*CULTIVAR           
IB9999 Borenos          IB0001   1.00  2.85 455.0 450.0 107.5  26.0  2.25  2.00 300.0
